26
Properties=species:S:1:pos:R:3 pbc="F F F"
N       21.69400000      18.99700000       4.53100000
N       20.28800000      17.33400000       4.45900000
C       20.74500000      18.26600000       5.23000000
H       20.34600000      18.59100000       6.23600000
C       21.97300000      18.24200000       3.33600000
H       22.75800000      18.44900000       2.63300000
C       21.08500000      17.29700000       3.31300000
H       20.93100000      16.53200000       2.61600000
C       22.23600000      20.33700000       4.76900000
H       23.28100000      20.33100000       4.39500000
H       22.17500000      20.50100000       5.84300000
H       21.54900000      21.06400000       4.30500000
C       19.48200000      16.21100000       4.74800000
H       18.59900000      16.64400000       5.11700000
H       19.23900000      15.77400000       3.78800000
C       20.08300000      15.17700000       5.75500000
H       20.01000000      15.46000000       6.79600000
H       19.43100000      14.30500000       5.75900000
H       21.09600000      14.91800000       5.58700000
O       22.96400000      16.70600000       6.16200000
O       22.55600000      18.73700000       6.90500000
C       23.18200000      17.63100000       7.02400000
C       24.36100000      17.62300000       7.85600000
H       25.08400000      18.24800000       7.38000000
H       24.63100000      16.58900000       8.10100000
H       24.26000000      18.16100000       8.75200000
